6

C       0.00000000       0.13550752       0.33172187
O       0.00000000       0.21803432      -1.06427621
H       0.90945580      -0.39782809       0.68449081
H      -0.90945580      -0.39782809       0.68449081
H       0.00000000       1.16028564       0.75692814
H       0.00000000      -0.71817129      -1.39335540
