6

C       0.00000000       0.00000000       0.66687000
C       0.00000000       0.00000000      -0.66687000
H       0.00000000       0.92974000      -1.23912000
H       0.00000000       0.92974000       1.23912000
H       0.00000000      -0.92974000       1.23912000
H       0.00000000      -0.92974000      -1.23912000
