35

C       0.19691200      -0.49048300      -0.88561500
H       0.13976700      -1.48144600      -1.34274100
H       0.28075100       0.23171400      -1.70266300
P       1.64871100      -0.35393500       0.22710800
C       2.80294500       0.98910700      -0.41305700
C       3.11947100       0.83660400      -1.90923200
C       2.06689100       2.32414100      -0.19437500
C       4.10921000       1.00844100       0.39333700
H       3.66364700      -0.08305700      -2.13228900
H       2.21262700       0.85416500      -2.51886200
H       3.74597900       1.67870600      -2.22649900
H       1.83503300       2.49420200       0.86044800
H       2.71017500       3.14137600      -0.54063200
H       1.12623200       2.37850600      -0.74839600
H       4.68626100       1.89715400       0.11384400
H       3.92406100       1.05978100       1.47087900
H       4.73471900       0.13574200       0.18600300
C       2.47538200      -2.03645100       0.37888100
C       3.33687900      -2.43070000      -0.82611500
C       3.31792900      -2.05225700       1.66736400
C       1.34341800      -3.07007400       0.54589400
H       2.77948300      -2.35287600      -1.76483100
H       4.23665500      -1.81436500      -0.90513300
H       3.66217600      -3.47203500      -0.71554300
H       2.70500200      -1.82218700       2.54419400
H       3.74421700      -3.05231800       1.80724900
H       4.14712000      -1.34342700       1.63820700
H       1.77849800      -4.02313000       0.86630800
H       0.60716900      -2.76846900       1.29791600
H       0.81640000      -3.25029500      -0.39380500
B      -1.09307000      -0.10300900       0.07247100
H       0.35564400      -0.25533800       1.34256000
H      -0.61936800      -0.42734600       1.35492500
H      -1.23815800       1.06464765       0.16150706
H      -2.07423732      -0.75282512      -0.01384066
