55

C       0.62444870      -1.07446923       0.72305116
H       0.39707735      -2.09015118       0.38489981
H       0.65299307      -1.09316793       1.81248165
P      -0.68583666       0.09485723       0.24692266
B       2.12480004      -0.62864319       0.23368134
H       2.39783401       0.55718403       0.78050450
B       2.08353977       1.65409766       1.44509094
H       1.46923454       1.27761650       2.42078717
H       3.19902346       2.07220311       1.65459570
N       1.18700720       2.46924315       0.49835165
H       0.81932819       3.28160126       0.98537884
H       1.68557289       2.80834983      -0.31893482
H       0.08395537       1.42989218       0.20573503
C      -1.41558038      -0.34824832      -1.37448639
C      -1.15943955       0.47283321      -2.49675256
C      -2.19830049      -1.51354776      -1.52959301
C      -1.69301939       0.10912408      -3.73298444
C      -2.70404424      -1.83152754      -2.78840262
C      -2.46477889      -1.03436368      -3.90368043
H      -1.48087004       0.73782747      -4.59394935
H      -3.30015297      -2.73401303      -2.89964808
C      -2.04466725       0.29279540       1.47381456
C      -2.85794157       1.43811256       1.28847384
C      -2.30198350      -0.55637751       2.57424966
C      -3.90193508       1.69601206       2.17224326
C      -3.36163979      -0.24714341       3.43136214
C      -4.17251997       0.86654516       3.25535571
H      -4.51940710       2.57611918       2.00995071
H      -3.55628668      -0.91118525       4.27008302
C      -0.29777148       1.70951494      -2.45155736
H      -0.66019965       2.44601655      -1.73113825
H       0.73032597       1.45745065      -2.18257672
H      -0.27483951       2.18693841      -3.43301036
C      -2.50707728      -2.45615325      -0.39426305
H      -1.59740010      -2.92126025      -0.00239929
H      -3.00730904      -1.94755702       0.43341407
H      -3.16050527      -3.26172770      -0.73515552
C      -3.04485733      -1.38671563      -5.24796406
H      -4.03914660      -0.94245093      -5.36820517
H      -2.41740303      -1.01379219      -6.06168837
H      -3.15172799      -2.46829919      -5.36555175
C      -2.64316062       2.41939551       0.16153871
H      -1.64108512       2.85836669       0.20184500
H      -2.76509021       1.94845412      -0.81844520
H      -3.36351587       3.23710269       0.22772043
C      -1.50654516      -1.79087435       2.93355457
H      -1.23864374      -2.40016266       2.07244135
H      -0.57962923      -1.52513764       3.45146111
H      -2.08779849      -2.41721079       3.61393564
C      -5.28591500       1.18326209       4.21841286
H      -5.64626127       0.28215667       4.72116097
H      -4.93993052       1.87770665       4.99163492
H      -6.13077921       1.65339276       3.70804064
H       2.28049485      -0.42372346      -0.91791192
H       2.93844763      -1.30908272       0.75076900
