9

         O      1.464348      0.566575      0.018593 
         C      0.466095     -0.379932      0.286553 
         C     -0.908028      0.191712     -0.040364 
         H      1.586082      0.579572     -0.966743 
         H      0.502825     -0.642289      1.364935 
         H      0.640796     -1.309724     -0.300997 
         H     -0.971210      0.438982     -1.121253 
         H     -1.691981     -0.555956      0.203306 
         H     -1.088927      1.111060      0.555970 
