31

C      -1.90285592       0.71761066      -0.84326700
H      -2.27898361       1.72151132      -0.61556258
H      -1.63852053       0.67387269      -1.90282506
P      -3.16541149      -0.48368573      -0.36988955
B      -0.67614026       0.25042538       0.17428440
C       0.41520730       1.37057405       0.51180047
C       1.79083322       1.10791522       0.45309151
C       0.03269843       2.66896616       0.88378479
C       2.73745592       2.09080501       0.73521668
H       2.12888153       0.11208732       0.17752676
C       0.96679267       3.65792054       1.17436846
H      -1.02611497       2.91273688       0.96037601
C       2.32832924       3.37111602       1.09622343
H       3.79694173       1.85633229       0.67393400
H       0.63550187       4.65255133       1.46178035
H       3.06396679       4.13954281       1.31775443
C      -0.13046372      -1.21976423      -0.19703659
C       0.37276234      -1.48389604      -1.48202364
C      -0.12092959      -2.28415391       0.71435237
C       0.86097032      -2.73790286      -1.83794156
H       0.39825332      -0.68301948      -2.21967278
C       0.36048341      -3.54621985       0.36993757
H      -0.49542459      -2.11861626       1.72309918
C       0.85330348      -3.77808461      -0.91055543
H       1.25069615      -2.90487327      -2.83876535
H       0.35284311      -4.34780662       1.10391841
H       1.23282542      -4.75878538      -1.18357418
H      -3.00037267      -1.65892546      -1.11330561
H      -1.39499986       0.04206327       1.32412771
H      -4.48502945      -0.10918758      -0.69078616
H      -2.37639758      -0.41110866       1.04306897
